14
 energy: -13.664167453865 gnorm: 0.000607639867 xtb: 6.6.1 (8d0f1dd)
C           -1.57919410911308        0.45225697977329        0.03895294487997
C           -0.55571932791764       -0.31752878709922       -0.78812342034903
C            0.65545337992851       -0.77491635289078        0.02592553689126
C            1.50303716977262        0.38193282003948        0.54305984980537
H           -1.16485876244579        1.39078650320669        0.39695720521428
H           -1.89377693694427       -0.13686382003937        0.89783956216498
H           -2.45702644024860        0.67781661947938       -0.56222711475480
H           -0.21576534053542        0.30784883955950       -1.61687342535676
H           -1.03914587780690       -1.19896298768014       -1.21643135106255
H            0.31353018097058       -1.37872500808465        0.86972415700078
H            1.27762793887660       -1.41326845460170       -0.60611917488274
H            2.39475747634885        0.00422216133248        1.03808881017712
H            0.94819923754422        0.98239092281284        1.25879957942455
H            1.81288041157032        1.02301056419220       -0.27957515915243
